#======================================================================

# CRYSTAL DATA

#----------------------------------------------------------------------

data_VESTA_phase_1


_chemical_name_common                  'Mg  H                                 '
_cell_length_a                         6.39527
_cell_length_b                         6.39527
_cell_length_c                         45.82592
_cell_angle_alpha                      90
_cell_angle_beta                       90
_cell_angle_gamma                      60.00000
_space_group_name_H-M_alt              'P 1'
_space_group_IT_number                 1

loop_
_space_group_symop_operation_xyz
   'x, y, z'

loop_
   _atom_site_label
   _atom_site_occupancy
   _atom_site_fract_x
   _atom_site_fract_y
   _atom_site_fract_z
   _atom_site_adp_type
   _atom_site_B_iso_or_equiv
   _atom_site_type_symbol
   Mg1        1.0     0.000000     -0.000000      0.215230     Biso  1.000000 Mg
   Mg2        1.0     0.500036     -0.000071      0.215216     Biso  1.000000 Mg
   Mg3        1.0    -0.000071      0.500036      0.215216     Biso  1.000000 Mg
   Mg4        1.0     0.500036      0.500036      0.215216     Biso  1.000000 Mg
   Mg5        1.0     0.833322      0.333356      0.272443     Biso  1.000000 Mg
   Mg6        1.0     0.333333      0.333333      0.272421     Biso  1.000000 Mg
   Mg7        1.0     0.833322      0.833322      0.272443     Biso  1.000000 Mg
   Mg8        1.0     0.333356      0.833322      0.272443     Biso  1.000000 Mg
   Mg9        1.0     0.000000     -0.000000      0.328997     Biso  1.000000 Mg
   Mg10       1.0     0.500024     -0.000047      0.329032     Biso  1.000000 Mg
   Mg11       1.0    -0.000047      0.500024      0.329032     Biso  1.000000 Mg
   Mg12       1.0     0.500024      0.500024      0.329032     Biso  1.000000 Mg
   Mg13       1.0     0.833325      0.333350      0.385525     Biso  1.000000 Mg
   Mg14       1.0     0.333333      0.333333      0.385571     Biso  1.000000 Mg
   Mg15       1.0     0.833325      0.833325      0.385525     Biso  1.000000 Mg
   Mg16       1.0     0.333350      0.833325      0.385525     Biso  1.000000 Mg
   Mg17       1.0     0.000000     -0.000000      0.441938     Biso  1.000000 Mg
   Mg18       1.0     0.499926      0.000147      0.441967     Biso  1.000000 Mg
   Mg19       1.0     0.000147      0.499926      0.441967     Biso  1.000000 Mg
   Mg20       1.0     0.499926      0.499926      0.441967     Biso  1.000000 Mg
   Mg21       1.0     0.833355      0.333290      0.498500     Biso  1.000000 Mg
   Mg22       1.0     0.333333      0.333333      0.498597     Biso  1.000000 Mg
   Mg23       1.0     0.833355      0.833355      0.498500     Biso  1.000000 Mg
   Mg24       1.0     0.333290      0.833355      0.498500     Biso  1.000000 Mg
   Mg25       1.0     0.000000     -0.000000      0.554853     Biso  1.000000 Mg
   Mg26       1.0     0.499895      0.000210      0.555145     Biso  1.000000 Mg
   Mg27       1.0     0.000210      0.499895      0.555145     Biso  1.000000 Mg
   Mg28       1.0     0.499895      0.499895      0.555145     Biso  1.000000 Mg
   Mg29       1.0     0.833247      0.333507      0.611527     Biso  1.000000 Mg
   Mg30       1.0     0.333333      0.333333      0.611854     Biso  1.000000 Mg
   Mg31       1.0     0.833247      0.833247      0.611527     Biso  1.000000 Mg
   Mg32       1.0     0.333507      0.833247      0.611527     Biso  1.000000 Mg
   Mg33       1.0     0.000000     -0.000000      0.667989     Biso  1.000000 Mg
   Mg34       1.0     0.500349     -0.000697      0.667931     Biso  1.000000 Mg
   Mg35       1.0    -0.000697      0.500349      0.667931     Biso  1.000000 Mg
   Mg36       1.0     0.500349      0.500349      0.667931     Biso  1.000000 Mg
   Mg37       1.0     0.832609      0.334781      0.724139     Biso  1.000000 Mg
   Mg38       1.0     0.333333      0.333333      0.723569     Biso  1.000000 Mg
   Mg39       1.0     0.832609      0.832609      0.724139     Biso  1.000000 Mg
   Mg40       1.0     0.334781      0.832609      0.724139     Biso  1.000000 Mg
   Mg41       1.0     0.000000     -0.000000      0.780060     Biso  1.000000 Mg
   Mg42       1.0     0.500276     -0.000553      0.781678     Biso  1.000000 Mg
   Mg43       1.0    -0.000553      0.500276      0.781678     Biso  1.000000 Mg
   Mg44       1.0     0.500276      0.500276      0.781678     Biso  1.000000 Mg
   H1         1.0     0.333333      0.333333      0.766397     Biso  1.000000 H
   H2         1.0     0.161907      0.161907      0.799423     Biso  1.000000 H
   H3         1.0     0.161907      0.676187      0.799423     Biso  1.000000 H
   H4         1.0     0.676187      0.161907      0.799423     Biso  1.000000 H
   H5         1.0     0.666667      0.666667      0.800078     Biso  1.000000 H
