#======================================================================

# CRYSTAL DATA

#----------------------------------------------------------------------

data_VESTA_phase_1


_chemical_name_common                  'Mg_slab'
_cell_length_a                         19.26000
_cell_length_b                         19.26030
_cell_length_c                         53.41300
_cell_angle_alpha                      90
_cell_angle_beta                       90
_cell_angle_gamma                      119.99900
_space_group_name_H-M_alt              'P 1'
_space_group_IT_number                 1

loop_
_space_group_symop_operation_xyz
   'x, y, z'

loop_
   _atom_site_label
   _atom_site_occupancy
   _atom_site_fract_x
   _atom_site_fract_y
   _atom_site_fract_z
   _atom_site_adp_type
   _atom_site_B_iso_or_equiv
   _atom_site_type_symbol
   Mg1        1.0    -0.008232     -0.025705      0.116244     Biso  1.000000 Mg
   Mg2        1.0     0.054021      0.107673      0.170399     Biso  1.000000 Mg
   Mg3        1.0     0.154414     -0.013481      0.125726     Biso  1.000000 Mg
   Mg4        1.0     0.319598     -0.024313      0.123111     Biso  1.000000 Mg
   Mg5        1.0     0.203891      0.098468      0.175429     Biso  1.000000 Mg
   Mg6        1.0     0.373288      0.099886      0.172555     Biso  1.000000 Mg
   Mg7        1.0    -0.009312      0.152315      0.118740     Biso  1.000000 Mg
   Mg8        1.0    -0.015625      0.314209      0.119512     Biso  1.000000 Mg
   Mg9        1.0     0.032759      0.261684      0.173432     Biso  1.000000 Mg
   Mg10       1.0     0.050318      0.430499      0.179096     Biso  1.000000 Mg
   Mg11       1.0     0.162131      0.165539      0.118100     Biso  1.000000 Mg
   Mg12       1.0     0.159702      0.326403      0.125827     Biso  1.000000 Mg
   Mg13       1.0     0.313085      0.144151      0.122536     Biso  1.000000 Mg
   Mg14       1.0     0.318003      0.320524      0.117073     Biso  1.000000 Mg
   Mg15       1.0     0.209056      0.277471      0.175882     Biso  1.000000 Mg
   Mg16       1.0     0.212482      0.444401      0.176120     Biso  1.000000 Mg
   Mg17       1.0     0.363444      0.262270      0.174327     Biso  1.000000 Mg
   Mg18       1.0     0.371079      0.424786      0.177845     Biso  1.000000 Mg
   Mg19       1.0    -0.002198     -0.015198      0.222404     Biso  1.000000 Mg
   Mg20       1.0    -0.019650     -0.022800      0.319332     Biso  1.000000 Mg
   Mg21       1.0     0.028166      0.083778      0.268085     Biso  1.000000 Mg
   Mg22       1.0     0.036286      0.074747      0.375546     Biso  1.000000 Mg
   Mg23       1.0     0.159471     -0.025590      0.224972     Biso  1.000000 Mg
   Mg24       1.0     0.151109     -0.028845      0.318844     Biso  1.000000 Mg
   Mg25       1.0     0.315883     -0.020825      0.218558     Biso  1.000000 Mg
   Mg26       1.0     0.310459     -0.041782      0.321696     Biso  1.000000 Mg
   Mg27       1.0     0.208881      0.083442      0.272739     Biso  1.000000 Mg
   Mg28       1.0     0.192845      0.069895      0.372503     Biso  1.000000 Mg
   Mg29       1.0     0.361443      0.075350      0.271629     Biso  1.000000 Mg
   Mg30       1.0     0.370280      0.087208      0.369226     Biso  1.000000 Mg
   Mg31       1.0    -0.001887      0.147566      0.218108     Biso  1.000000 Mg
   Mg32       1.0    -0.020677      0.132245      0.319390     Biso  1.000000 Mg
   Mg33       1.0    -0.018436      0.312133      0.224400     Biso  1.000000 Mg
   Mg34       1.0    -0.028097      0.310318      0.321822     Biso  1.000000 Mg
   Mg35       1.0     0.021201      0.247004      0.270177     Biso  1.000000 Mg
   Mg36       1.0     0.034652      0.236604      0.375312     Biso  1.000000 Mg
   Mg37       1.0     0.034158      0.423469      0.272405     Biso  1.000000 Mg
   Mg38       1.0     0.009134      0.385276      0.379312     Biso  1.000000 Mg
   Mg39       1.0     0.159320      0.147712      0.226480     Biso  1.000000 Mg
   Mg40       1.0     0.141529      0.134339      0.322226     Biso  1.000000 Mg
   Mg41       1.0     0.146906      0.319194      0.224845     Biso  1.000000 Mg
   Mg42       1.0     0.143475      0.305444      0.321101     Biso  1.000000 Mg
   Mg43       1.0     0.317809      0.147950      0.222202     Biso  1.000000 Mg
   Mg44       1.0     0.294661      0.129883      0.323862     Biso  1.000000 Mg
   Mg45       1.0     0.307474      0.300427      0.225235     Biso  1.000000 Mg
   Mg46       1.0     0.312384      0.306819      0.322658     Biso  1.000000 Mg
   Mg47       1.0     0.197557      0.245672      0.272509     Biso  1.000000 Mg
   Mg48       1.0     0.213691      0.239783      0.383421     Biso  1.000000 Mg
   Mg49       1.0     0.198276      0.424099      0.276812     Biso  1.000000 Mg
   Mg50       1.0     0.188957      0.392521      0.380701     Biso  1.000000 Mg
   Mg51       1.0     0.371505      0.251552      0.276093     Biso  1.000000 Mg
   Mg52       1.0     0.369955      0.235605      0.372386     Biso  1.000000 Mg
   Mg53       1.0     0.368196      0.412829      0.275599     Biso  1.000000 Mg
   Mg54       1.0     0.380775      0.396212      0.379167     Biso  1.000000 Mg
   Mg55       1.0     0.493463     -0.005553      0.116929     Biso  1.000000 Mg
   Mg56       1.0     0.535220      0.090728      0.171614     Biso  1.000000 Mg
   Mg57       1.0     0.654618     -0.010907      0.122247     Biso  1.000000 Mg
   Mg58       1.0     0.822105     -0.021016      0.127095     Biso  1.000000 Mg
   Mg59       1.0     0.705746      0.099362      0.177720     Biso  1.000000 Mg
   Mg60       1.0     0.862549      0.088123      0.177348     Biso  1.000000 Mg
   Mg61       1.0     0.483411      0.154458      0.119006     Biso  1.000000 Mg
   Mg62       1.0     0.486351      0.319445      0.123920     Biso  1.000000 Mg
   Mg63       1.0     0.536749      0.260406      0.176482     Biso  1.000000 Mg
   Mg64       1.0     0.525091      0.417317      0.176911     Biso  1.000000 Mg
   Mg65       1.0     0.663367      0.163107      0.119213     Biso  1.000000 Mg
   Mg66       1.0     0.661123      0.315477      0.117489     Biso  1.000000 Mg
   Mg67       1.0     0.830385      0.152836      0.129457     Biso  1.000000 Mg
   Mg68       1.0     0.824110      0.312640      0.125414     Biso  1.000000 Mg
   Mg69       1.0     0.710466      0.274365      0.169814     Biso  1.000000 Mg
   Mg70       1.0     0.705939      0.430282      0.174975     Biso  1.000000 Mg
   Mg71       1.0     0.872871      0.273330      0.179285     Biso  1.000000 Mg
   Mg72       1.0     0.867249      0.432597      0.175146     Biso  1.000000 Mg
   Mg73       1.0     0.474059     -0.029461      0.221202     Biso  1.000000 Mg
   Mg74       1.0     0.470878     -0.038617      0.323673     Biso  1.000000 Mg
   Mg75       1.0     0.541654      0.093919      0.267956     Biso  1.000000 Mg
   Mg76       1.0     0.533741      0.066072      0.382132     Biso  1.000000 Mg
   Mg77       1.0     0.643396     -0.013923      0.225961     Biso  1.000000 Mg
   Mg78       1.0     0.644487     -0.044103      0.320898     Biso  1.000000 Mg
   Mg79       1.0     0.802061     -0.014273      0.226230     Biso  1.000000 Mg
   Mg80       1.0     0.808755     -0.033765      0.323089     Biso  1.000000 Mg
   Mg81       1.0     0.703564      0.084308      0.276514     Biso  1.000000 Mg
   Mg82       1.0     0.699806      0.082006      0.375342     Biso  1.000000 Mg
   Mg83       1.0     0.870374      0.081911      0.269746     Biso  1.000000 Mg
   Mg84       1.0     0.862825      0.080872      0.383511     Biso  1.000000 Mg
   Mg85       1.0     0.493177      0.160181      0.222073     Biso  1.000000 Mg
   Mg86       1.0     0.481592      0.131387      0.319310     Biso  1.000000 Mg
   Mg87       1.0     0.485243      0.311219      0.225729     Biso  1.000000 Mg
   Mg88       1.0     0.468462      0.289558      0.324529     Biso  1.000000 Mg
   Mg89       1.0     0.529851      0.248262      0.276651     Biso  1.000000 Mg
   Mg90       1.0     0.544885      0.244270      0.379432     Biso  1.000000 Mg
   Mg91       1.0     0.541564      0.422580      0.273133     Biso  1.000000 Mg
   Mg92       1.0     0.558337      0.408427      0.385633     Biso  1.000000 Mg
   Mg93       1.0     0.647491      0.150699      0.220974     Biso  1.000000 Mg
   Mg94       1.0     0.630982      0.126181      0.322091     Biso  1.000000 Mg
   Mg95       1.0     0.648096      0.320618      0.221448     Biso  1.000000 Mg
   Mg96       1.0     0.642487      0.308613      0.321457     Biso  1.000000 Mg
   Mg97       1.0     0.811441      0.153412      0.226737     Biso  1.000000 Mg
   Mg98       1.0     0.810649      0.125758      0.324334     Biso  1.000000 Mg
   Mg99       1.0     0.809346      0.310923      0.226478     Biso  1.000000 Mg
   Mg100      1.0     0.793936      0.297523      0.320705     Biso  1.000000 Mg
   Mg101      1.0     0.694456      0.254388      0.269236     Biso  1.000000 Mg
   Mg102      1.0     0.686139      0.223784      0.368842     Biso  1.000000 Mg
   Mg103      1.0     0.692707      0.408967      0.271676     Biso  1.000000 Mg
   Mg104      1.0     0.702084      0.404321      0.370573     Biso  1.000000 Mg
   Mg105      1.0     0.867630      0.248864      0.272271     Biso  1.000000 Mg
   Mg106      1.0     0.851276      0.244699      0.367858     Biso  1.000000 Mg
   Mg107      1.0     0.863349      0.419340      0.277161     Biso  1.000000 Mg
   Mg108      1.0     0.846742      0.400615      0.383110     Biso  1.000000 Mg
   Mg109      1.0    -0.030737      0.468507      0.122698     Biso  1.000000 Mg
   Mg110      1.0     0.032794      0.598476      0.174034     Biso  1.000000 Mg
   Mg111      1.0     0.146034      0.482831      0.122828     Biso  1.000000 Mg
   Mg112      1.0     0.309705      0.489983      0.116776     Biso  1.000000 Mg
   Mg113      1.0     0.212109      0.607822      0.178403     Biso  1.000000 Mg
   Mg114      1.0     0.372901      0.602165      0.177325     Biso  1.000000 Mg
   Mg115      1.0    -0.016519      0.655106      0.121243     Biso  1.000000 Mg
   Mg116      1.0    -0.009940      0.813819      0.123970     Biso  1.000000 Mg
   Mg117      1.0     0.036507      0.758493      0.175370     Biso  1.000000 Mg
   Mg118      1.0     0.040523      0.926062      0.173923     Biso  1.000000 Mg
   Mg119      1.0     0.145358      0.638830      0.125110     Biso  1.000000 Mg
   Mg120      1.0     0.157620      0.814065      0.117401     Biso  1.000000 Mg
   Mg121      1.0     0.317415      0.653756      0.119574     Biso  1.000000 Mg
   Mg122      1.0     0.326643      0.818442      0.118637     Biso  1.000000 Mg
   Mg123      1.0     0.202766      0.763748      0.171302     Biso  1.000000 Mg
   Mg124      1.0     0.208867      0.922470      0.171536     Biso  1.000000 Mg
   Mg125      1.0     0.374589      0.765556      0.177219     Biso  1.000000 Mg
   Mg126      1.0     0.384578      0.940158      0.170553     Biso  1.000000 Mg
   Mg127      1.0    -0.026549      0.479608      0.222607     Biso  1.000000 Mg
   Mg128      1.0    -0.027235      0.467022      0.324384     Biso  1.000000 Mg
   Mg129      1.0     0.035408      0.588542      0.274023     Biso  1.000000 Mg
   Mg130      1.0     0.025969      0.562659      0.377431     Biso  1.000000 Mg
   Mg131      1.0     0.141443      0.480389      0.227143     Biso  1.000000 Mg
   Mg132      1.0     0.128691      0.462893      0.326627     Biso  1.000000 Mg
   Mg133      1.0     0.309885      0.478601      0.227373     Biso  1.000000 Mg
   Mg134      1.0     0.321785      0.465686      0.328674     Biso  1.000000 Mg
   Mg135      1.0     0.200927      0.595521      0.274330     Biso  1.000000 Mg
   Mg136      1.0     0.188798      0.556649      0.379390     Biso  1.000000 Mg
   Mg137      1.0     0.351726      0.581117      0.275323     Biso  1.000000 Mg
   Mg138      1.0     0.354099      0.567080      0.376957     Biso  1.000000 Mg
   Mg139      1.0    -0.013089      0.650093      0.227506     Biso  1.000000 Mg
   Mg140      1.0    -0.018258      0.637885      0.322977     Biso  1.000000 Mg
   Mg141      1.0    -0.016299      0.809074      0.221594     Biso  1.000000 Mg
   Mg142      1.0    -0.001794      0.805302      0.318454     Biso  1.000000 Mg
   Mg143      1.0     0.042663      0.758700      0.270335     Biso  1.000000 Mg
   Mg144      1.0     0.026637      0.749794      0.368978     Biso  1.000000 Mg
   Mg145      1.0     0.035743      0.913697      0.265704     Biso  1.000000 Mg
   Mg146      1.0     0.027556      0.905582      0.373914     Biso  1.000000 Mg
   Mg147      1.0     0.141283      0.640015      0.224148     Biso  1.000000 Mg
   Mg148      1.0     0.145539      0.637320      0.325172     Biso  1.000000 Mg
   Mg149      1.0     0.162868      0.826282      0.221573     Biso  1.000000 Mg
   Mg150      1.0     0.149873      0.801379      0.320092     Biso  1.000000 Mg
   Mg151      1.0     0.306339      0.636558      0.222300     Biso  1.000000 Mg
   Mg152      1.0     0.295829      0.615554      0.328080     Biso  1.000000 Mg
   Mg153      1.0     0.317934      0.809757      0.224161     Biso  1.000000 Mg
   Mg154      1.0     0.313020      0.793869      0.318840     Biso  1.000000 Mg
   Mg155      1.0     0.202568      0.762244      0.272449     Biso  1.000000 Mg
   Mg156      1.0     0.179220      0.727575      0.381183     Biso  1.000000 Mg
   Mg157      1.0     0.215881      0.921016      0.271732     Biso  1.000000 Mg
   Mg158      1.0     0.203069      0.907266      0.371302     Biso  1.000000 Mg
   Mg159      1.0     0.370517      0.757602      0.267319     Biso  1.000000 Mg
   Mg160      1.0     0.362322      0.724033      0.375544     Biso  1.000000 Mg
   Mg161      1.0     0.379579      0.923491      0.269898     Biso  1.000000 Mg
   Mg162      1.0     0.361524      0.896523      0.371146     Biso  1.000000 Mg
   Mg163      1.0     0.489257      0.484783      0.124898     Biso  1.000000 Mg
   Mg164      1.0     0.540104      0.589347      0.174671     Biso  1.000000 Mg
   Mg165      1.0     0.659499      0.483907      0.116972     Biso  1.000000 Mg
   Mg166      1.0     0.812243      0.479331      0.118988     Biso  1.000000 Mg
   Mg167      1.0     0.714945      0.598365      0.174740     Biso  1.000000 Mg
   Mg168      1.0     0.864188      0.589417      0.173123     Biso  1.000000 Mg
   Mg169      1.0     0.478926      0.640734      0.123477     Biso  1.000000 Mg
   Mg170      1.0     0.482942      0.806639      0.126598     Biso  1.000000 Mg
   Mg171      1.0     0.533889      0.750789      0.172179     Biso  1.000000 Mg
   Mg172      1.0     0.548139      0.926082      0.175005     Biso  1.000000 Mg
   Mg173      1.0     0.661849      0.655593      0.124844     Biso  1.000000 Mg
   Mg174      1.0     0.656197      0.821466      0.119710     Biso  1.000000 Mg
   Mg175      1.0     0.814857      0.649329      0.122082     Biso  1.000000 Mg
   Mg176      1.0     0.823288      0.816966      0.120057     Biso  1.000000 Mg
   Mg177      1.0     0.703737      0.752636      0.176651     Biso  1.000000 Mg
   Mg178      1.0     0.706515      0.918467      0.175264     Biso  1.000000 Mg
   Mg179      1.0     0.873391      0.761848      0.172473     Biso  1.000000 Mg
   Mg180      1.0     0.876727      0.932136      0.175137     Biso  1.000000 Mg
   Mg181      1.0     0.469276      0.464765      0.226734     Biso  1.000000 Mg
   Mg182      1.0     0.480668      0.464889      0.325476     Biso  1.000000 Mg
   Mg183      1.0     0.526778      0.578459      0.275136     Biso  1.000000 Mg
   Mg184      1.0     0.531236      0.570081      0.376727     Biso  1.000000 Mg
   Mg185      1.0     0.653096      0.484748      0.219137     Biso  1.000000 Mg
   Mg186      1.0     0.643680      0.466393      0.323875     Biso  1.000000 Mg
   Mg187      1.0     0.809269      0.478593      0.224748     Biso  1.000000 Mg
   Mg188      1.0     0.810101      0.479507      0.322143     Biso  1.000000 Mg
   Mg189      1.0     0.694758      0.573689      0.275259     Biso  1.000000 Mg
   Mg190      1.0     0.705873      0.589648      0.372664     Biso  1.000000 Mg
   Mg191      1.0     0.864768      0.592259      0.273660     Biso  1.000000 Mg
   Mg192      1.0     0.864042      0.569879      0.382567     Biso  1.000000 Mg
   Mg193      1.0     0.483482      0.642962      0.227398     Biso  1.000000 Mg
   Mg194      1.0     0.473952      0.632796      0.328627     Biso  1.000000 Mg
   Mg195      1.0     0.486405      0.821745      0.222321     Biso  1.000000 Mg
   Mg196      1.0     0.465585      0.781494      0.322454     Biso  1.000000 Mg
   Mg197      1.0     0.531846      0.756435      0.271637     Biso  1.000000 Mg
   Mg198      1.0     0.523015      0.746834      0.380810     Biso  1.000000 Mg
   Mg199      1.0     0.531601      0.931353      0.275135     Biso  1.000000 Mg
   Mg200      1.0     0.530039      0.908196      0.392461     Biso  1.000000 Mg
   Mg201      1.0     0.645442      0.642140      0.226346     Biso  1.000000 Mg
   Mg202      1.0     0.641924      0.638410      0.328500     Biso  1.000000 Mg
   Mg203      1.0     0.653781      0.804028      0.220940     Biso  1.000000 Mg
   Mg204      1.0     0.639920      0.788887      0.320911     Biso  1.000000 Mg
   Mg205      1.0     0.811197      0.642671      0.223972     Biso  1.000000 Mg
   Mg206      1.0     0.814062      0.637226      0.321234     Biso  1.000000 Mg
   Mg207      1.0     0.811032      0.811045      0.222503     Biso  1.000000 Mg
   Mg208      1.0     0.809871      0.795583      0.317629     Biso  1.000000 Mg
   Mg209      1.0     0.676749      0.727891      0.273510     Biso  1.000000 Mg
   Mg210      1.0     0.687425      0.746682      0.386961     Biso  1.000000 Mg
   Mg211      1.0     0.696446      0.919006      0.273977     Biso  1.000000 Mg
   Mg212      1.0     0.687308      0.902277      0.377570     Biso  1.000000 Mg
   Mg213      1.0     0.885182      0.763433      0.270705     Biso  1.000000 Mg
   Mg214      1.0     0.860570      0.738537      0.377876     Biso  1.000000 Mg
   Mg215      1.0     0.861304      0.924217      0.275426     Biso  1.000000 Mg
   Mg216      1.0     0.859731      0.912030      0.375955     Biso  1.000000 Mg
